OPT_V9/My_campus_w_initial_sub_3_active_28_03_16_10/powerflow_results_t1.txt
Pandapower Network Debug Info
==================================================

BUS:
       vm_pu  va_degree      p_mw        q_mvar
0   1.003584   0.162066 -0.005351 -2.350593e-05
1   1.004732   0.213192 -0.001212 -4.533107e-07
2   1.005396   0.242747 -0.000739  0.000000e+00
3   1.003873   0.174923 -0.000434  0.000000e+00
4   1.001807   0.090889 -0.001280  9.116366e-05
5   1.003030   0.141672 -0.001017 -1.482298e-05
6   1.005603   0.256352 -0.002974  0.000000e+00
7   1.002471   0.116810 -0.003743 -7.695355e-06
8   1.000340   0.015120 -0.000674 -5.259725e-04
9   0.999951   0.002606  0.001822  9.833248e-03
10  0.999943   0.002875  0.002783  8.108654e-03
11  0.999937   0.003090  0.004553  1.121126e-02
12  0.999945   0.004534 -0.001558  5.584324e-03
13  0.999932   0.004827  0.002855  1.136530e-02
14  0.999925   0.004953  0.006969  9.924552e-03
15  0.999976   0.001631  0.000000  0.000000e+00
16  0.999976   0.001631  0.000000  0.000000e+00
17  0.999946   0.004400  0.000000  0.000000e+00
18  0.999946   0.004400  0.000000  0.000000e+00
19  1.000000   0.000000 -0.001475 -3.415439e-02
20  1.000000   0.000005  0.000000  0.000000e+00
21  1.000000   0.000000  0.001368 -3.144347e-02
22  1.000000   0.000004  0.000000  0.000000e+00
--------------------------------------------------

LINE:
    p_from_mw   q_from_mvar   p_to_mw     q_to_mvar         pl_mw       ql_mvar  i_from_ka   i_to_ka      i_ka  vm_from_pu  va_from_degree  vm_to_pu  va_to_degree  loading_percent
0    0.001465  3.015441e-02 -0.001464 -3.015371e-02  8.915044e-07  6.951207e-07   0.001162  0.001162  0.001162    1.000000        0.000005  0.999976      0.001631         0.505223
1   -0.001378  2.744349e-02  0.001380 -2.744190e-02  2.030968e-06  1.583579e-06   0.001058  0.001058  0.001058    1.000000        0.000004  0.999946      0.004400         0.459840
2    0.009160  2.915390e-02 -0.009159 -2.915334e-02  7.221635e-07  5.630828e-07   0.001176  0.001176  0.001176    0.999976        0.001631  0.999951      0.002606         0.511410
3   -0.001558  5.584333e-03  0.001558 -5.584324e-03  1.162509e-08  9.064278e-09   0.000223  0.000223  0.000223    0.999946        0.004400  0.999945      0.004534         0.097027
4    0.009824  2.129014e-02 -0.009824 -2.128990e-02  3.006507e-07  2.344223e-07   0.000903  0.000903  0.000903    0.999946        0.004400  0.999932      0.004827         0.392410
5   -0.007706 -8.813637e-08  0.007733  2.174260e-05  2.777223e-05  2.165446e-05   0.011122  0.011122  0.011122    0.999976        0.001631  1.003584      0.162066         4.835748
6   -0.003972  6.566878e-07  0.003984  8.885882e-06  1.223851e-05  9.542569e-06   0.005733  0.005733  0.005733    0.999946        0.004400  1.003030      0.141672         2.492505
7   -0.003734 -3.505117e-07  0.003743  7.695384e-06  9.419927e-06  7.344872e-06   0.005390  0.005390  0.005390    0.999946        0.004400  1.002471      0.116810         2.343302
8   -0.001951 -4.327168e-04  0.001952  4.332522e-04  6.867100e-07  5.354391e-07   0.002885  0.002885  0.002885    0.999946        0.004400  1.000340      0.015120         1.254160
9   -0.007336 -1.931997e-02  0.007337  1.932009e-02  1.477124e-07  1.151738e-07   0.000795  0.000795  0.000795    0.999943        0.002875  0.999951      0.002606         0.345862
10  -0.004553 -1.121126e-02  0.004553  1.121132e-02  7.161956e-08  5.584295e-08   0.000466  0.000466  0.000466    0.999937        0.003090  0.999943      0.002875         0.202513
11  -0.006969 -9.924552e-03  0.006969  9.924608e-03  7.193607e-08  5.608974e-08   0.000467  0.000467  0.000467    0.999925        0.004953  0.999932      0.004827         0.202960
12   0.001951  7.259996e-08 -0.001948  1.666051e-06  2.229850e-06  1.738651e-06   0.002802  0.002802  0.002802    1.004732        0.213192  1.003584      0.162066         1.218333
13   0.000434  1.291899e-11 -0.000434  9.741290e-08  1.249503e-07  9.742582e-08   0.000624  0.000624  0.000624    1.003873        0.174923  1.003584      0.162066         0.271478
14   0.000739  4.708917e-11 -0.000738  3.807671e-07  4.884008e-07  3.808142e-07   0.001061  0.001061  0.001061    1.005396        0.242747  1.004732      0.213192         0.461119
15  -0.001278  9.272023e-05  0.001280 -9.116365e-05  1.996336e-06  1.556576e-06   0.001849  0.001849  0.001849    1.000340        0.015120  1.001807      0.090889         0.803835
16   0.002974  2.448950e-10 -0.002966  5.937120e-06  7.614775e-06  5.937365e-06   0.004269  0.004269  0.004269    1.005603        0.256352  1.003030      0.141672         1.855946
--------------------------------------------------

TRAFO:
    p_hv_mw  q_hv_mvar   p_lv_mw     q_lv_mvar    pl_mw  ql_mvar   i_hv_ka   i_lv_ka  vm_hv_pu  va_hv_degree  vm_lv_pu  va_lv_degree  loading_percent
0 -0.007696   0.001000  0.007706  8.813466e-08  0.00001    0.001  0.000299  0.011122  0.999976      0.001631  0.999976      0.001631         0.077604
1 -0.009646   0.000567  0.009656  4.324106e-04  0.00001    0.001  0.000372  0.013952  0.999946      0.004400  0.999946      0.004400         0.096665
2  0.001475   0.034154 -0.001465 -3.015441e-02  0.00001    0.004  0.000282  0.001162  1.000000      0.000000  1.000000      0.000005         0.085466
3 -0.001368   0.031443  0.001378 -2.744349e-02  0.00001    0.004  0.000260  0.001058  1.000000      0.000000  1.000000      0.000004         0.078683
--------------------------------------------------
